11799694
  -OEChem-04162505223D

 80 83  0     1  0  0  0  0  0999 V2000
    0.1642    2.4132   -0.3648 O   0  0  0  0  0  0  0  0  0  0  0  0
   -1.2354    0.7190    1.8997 O   0  0  0  0  0  0  0  0  0  0  0  0
    5.6007   -1.0847    1.5720 O   0  0  0  0  0  0  0  0  0  0  0  0
   -0.1068    3.6179    1.5879 O   0  0  0  0  0  0  0  0  0  0  0  0
    7.5885   -1.3631    0.4282 O   0  0  0  0  0  0  0  0  0  0  0  0
   -7.8316   -0.0278    0.7960 O   0  0  0  0  0  0  0  0  0  0  0  0
   -6.7791   -1.2103   -0.8820 O   0  0  0  0  0  0  0  0  0  0  0  0
    0.8027   -0.4953   -1.5123 C   0  0  2  0  0  0  0  0  0  0  0  0
    1.5210    0.3484   -0.4066 C   0  0  1  0  0  0  0  0  0  0  0  0
   -0.3858   -1.2180   -0.8599 C   0  0  1  0  0  0  0  0  0  0  0  0
   -1.4561   -0.2627   -0.2988 C   0  0  1  0  0  0  0  0  0  0  0  0
    2.8335    1.0426   -0.9487 C   0  0  2  0  0  0  0  0  0  0  0  0
    3.7709   -0.0442   -1.5776 C   0  0  2  0  0  0  0  0  0  0  0  0
   -2.4679   -1.3090    0.2298 C   0  0  2  0  0  0  0  0  0  0  0  0
    0.5411    1.2693    0.3737 C   0  0  2  0  0  0  0  0  0  0  0  0
    1.7605   -1.5084   -2.1584 C   0  0  0  0  0  0  0  0  0  0  0  0
   -1.1953   -2.2121   -1.6842 C   0  0  0  0  0  0  0  0  0  0  0  0
    3.0509   -0.8684   -2.6558 C   0  0  0  0  0  0  0  0  0  0  0  0
   -2.4865   -2.3971   -0.8703 C   0  0  0  0  0  0  0  0  0  0  0  0
   -0.7555    0.5628    0.7768 C   0  0  0  0  0  0  0  0  0  0  0  0
    3.6156    1.7741    0.1804 C   0  0  0  0  0  0  0  0  0  0  0  0
    4.4102   -0.9698   -0.5222 C   0  0  0  0  0  0  0  0  0  0  0  0
   -2.1052    0.6778   -1.3318 C   0  0  0  0  0  0  0  0  0  0  0  0
   -3.8656   -0.8001    0.5624 C   0  0  1  0  0  0  0  0  0  0  0  0
    2.5309    2.1123   -2.0309 C   0  0  0  0  0  0  0  0  0  0  0  0
    4.2218    0.8395    1.2204 C   0  0  0  0  0  0  0  0  0  0  0  0
    5.1371   -0.1880    0.5680 C   0  0  1  0  0  0  0  0  0  0  0  0
   -4.7578   -1.9691    1.0254 C   0  0  0  0  0  0  0  0  0  0  0  0
   -3.7815    0.3117    1.6124 C   0  0  0  0  0  0  0  0  0  0  0  0
   -6.1636   -1.5388    1.4488 C   0  0  0  0  0  0  0  0  0  0  0  0
   -0.1375    3.5328    0.3677 C   0  0  0  0  0  0  0  0  0  0  0  0
    6.8505   -1.6013    1.3747 C   0  0  0  0  0  0  0  0  0  0  0  0
   -0.5170    4.6609   -0.5431 C   0  0  0  0  0  0  0  0  0  0  0  0
   -6.9386   -0.9345    0.2990 C   0  0  0  0  0  0  0  0  0  0  0  0
    7.2036   -2.5217    2.5035 C   0  0  0  0  0  0  0  0  0  0  0  0
   -8.6370    0.6420   -0.1791 C   0  0  0  0  0  0  0  0  0  0  0  0
    0.4395    0.1637   -2.3066 H   0  0  0  0  0  0  0  0  0  0  0  0
    1.8415   -0.3897    0.3427 H   0  0  0  0  0  0  0  0  0  0  0  0
    0.0346   -1.7974   -0.0194 H   0  0  0  0  0  0  0  0  0  0  0  0
    4.6059    0.4701   -2.0758 H   0  0  0  0  0  0  0  0  0  0  0  0
   -2.0487   -1.7666    1.1396 H   0  0  0  0  0  0  0  0  0  0  0  0
    1.0461    1.5535    1.3060 H   0  0  0  0  0  0  0  0  0  0  0  0
    1.2656   -1.9957   -3.0072 H   0  0  0  0  0  0  0  0  0  0  0  0
    1.9985   -2.3071   -1.4455 H   0  0  0  0  0  0  0  0  0  0  0  0
   -1.4232   -1.8134   -2.6792 H   0  0  0  0  0  0  0  0  0  0  0  0
   -0.6713   -3.1638   -1.8181 H   0  0  0  0  0  0  0  0  0  0  0  0
    2.8224   -0.2279   -3.5161 H   0  0  0  0  0  0  0  0  0  0  0  0
    3.7188   -1.6514   -3.0357 H   0  0  0  0  0  0  0  0  0  0  0  0
   -2.5202   -3.3957   -0.4203 H   0  0  0  0  0  0  0  0  0  0  0  0
   -3.3495   -2.3048   -1.5395 H   0  0  0  0  0  0  0  0  0  0  0  0
    4.4350    2.3527   -0.2692 H   0  0  0  0  0  0  0  0  0  0  0  0
    2.9798    2.5119    0.6822 H   0  0  0  0  0  0  0  0  0  0  0  0
    5.1190   -1.6496   -1.0127 H   0  0  0  0  0  0  0  0  0  0  0  0
    3.6666   -1.6269   -0.0567 H   0  0  0  0  0  0  0  0  0  0  0  0
   -1.3678    1.2285   -1.9210 H   0  0  0  0  0  0  0  0  0  0  0  0
   -2.7327    1.4374   -0.8561 H   0  0  0  0  0  0  0  0  0  0  0  0
   -2.7293    0.1371   -2.0510 H   0  0  0  0  0  0  0  0  0  0  0  0
   -4.3220   -0.3703   -0.3364 H   0  0  0  0  0  0  0  0  0  0  0  0
    3.4497    2.4086   -2.5516 H   0  0  0  0  0  0  0  0  0  0  0  0
    2.1250    3.0302   -1.5975 H   0  0  0  0  0  0  0  0  0  0  0  0
    1.8304    1.7631   -2.7930 H   0  0  0  0  0  0  0  0  0  0  0  0
    4.7936    1.4229    1.9529 H   0  0  0  0  0  0  0  0  0  0  0  0
    3.4376    0.3385    1.8004 H   0  0  0  0  0  0  0  0  0  0  0  0
    5.9792    0.3593    0.1228 H   0  0  0  0  0  0  0  0  0  0  0  0
   -4.2853   -2.4748    1.8771 H   0  0  0  0  0  0  0  0  0  0  0  0
   -4.8497   -2.7174    0.2297 H   0  0  0  0  0  0  0  0  0  0  0  0
   -3.2989    1.2149    1.2393 H   0  0  0  0  0  0  0  0  0  0  0  0
   -4.7823    0.6711    1.8730 H   0  0  0  0  0  0  0  0  0  0  0  0
   -3.3333   -0.0409    2.5460 H   0  0  0  0  0  0  0  0  0  0  0  0
   -6.1339   -0.8522    2.2991 H   0  0  0  0  0  0  0  0  0  0  0  0
   -6.7239   -2.4220    1.7782 H   0  0  0  0  0  0  0  0  0  0  0  0
   -1.3720    4.3679   -1.1577 H   0  0  0  0  0  0  0  0  0  0  0  0
   -0.8021    5.5306    0.0557 H   0  0  0  0  0  0  0  0  0  0  0  0
    0.3346    4.9316   -1.1718 H   0  0  0  0  0  0  0  0  0  0  0  0
    6.4906   -3.3490    2.5435 H   0  0  0  0  0  0  0  0  0  0  0  0
    8.2040   -2.9316    2.3379 H   0  0  0  0  0  0  0  0  0  0  0  0
    7.2055   -1.9684    3.4459 H   0  0  0  0  0  0  0  0  0  0  0  0
   -8.0040    1.2144   -0.8640 H   0  0  0  0  0  0  0  0  0  0  0  0
   -9.2464   -0.0817   -0.7286 H   0  0  0  0  0  0  0  0  0  0  0  0
   -9.3013    1.3337    0.3456 H   0  0  0  0  0  0  0  0  0  0  0  0
  1 15  1  0  0  0  0
  1 31  1  0  0  0  0
  2 20  2  0  0  0  0
  3 27  1  0  0  0  0
  3 32  1  0  0  0  0
  4 31  2  0  0  0  0
  5 32  2  0  0  0  0
  6 34  1  0  0  0  0
  6 36  1  0  0  0  0
  7 34  2  0  0  0  0
  8  9  1  0  0  0  0
  8 10  1  0  0  0  0
  8 16  1  0  0  0  0
  8 37  1  0  0  0  0
  9 12  1  0  0  0  0
  9 15  1  0  0  0  0
  9 38  1  0  0  0  0
 10 11  1  0  0  0  0
 10 17  1  0  0  0  0
 10 39  1  0  0  0  0
 11 14  1  0  0  0  0
 11 20  1  0  0  0  0
 11 23  1  0  0  0  0
 12 13  1  0  0  0  0
 12 21  1  0  0  0  0
 12 25  1  0  0  0  0
 13 18  1  0  0  0  0
 13 22  1  0  0  0  0
 13 40  1  0  0  0  0
 14 19  1  0  0  0  0
 14 24  1  0  0  0  0
 14 41  1  0  0  0  0
 15 20  1  0  0  0  0
 15 42  1  0  0  0  0
 16 18  1  0  0  0  0
 16 43  1  0  0  0  0
 16 44  1  0  0  0  0
 17 19  1  0  0  0  0
 17 45  1  0  0  0  0
 17 46  1  0  0  0  0
 18 47  1  0  0  0  0
 18 48  1  0  0  0  0
 19 49  1  0  0  0  0
 19 50  1  0  0  0  0
 21 26  1  0  0  0  0
 21 51  1  0  0  0  0
 21 52  1  0  0  0  0
 22 27  1  0  0  0  0
 22 53  1  0  0  0  0
 22 54  1  0  0  0  0
 23 55  1  0  0  0  0
 23 56  1  0  0  0  0
 23 57  1  0  0  0  0
 24 28  1  0  0  0  0
 24 29  1  0  0  0  0
 24 58  1  0  0  0  0
 25 59  1  0  0  0  0
 25 60  1  0  0  0  0
 25 61  1  0  0  0  0
 26 27  1  0  0  0  0
 26 62  1  0  0  0  0
 26 63  1  0  0  0  0
 27 64  1  0  0  0  0
 28 30  1  0  0  0  0
 28 65  1  0  0  0  0
 28 66  1  0  0  0  0
 29 67  1  0  0  0  0
 29 68  1  0  0  0  0
 29 69  1  0  0  0  0
 30 34  1  0  0  0  0
 30 70  1  0  0  0  0
 30 71  1  0  0  0  0
 31 33  1  0  0  0  0
 32 35  1  0  0  0  0
 33 72  1  0  0  0  0
 33 73  1  0  0  0  0
 33 74  1  0  0  0  0
 35 75  1  0  0  0  0
 35 76  1  0  0  0  0
 35 77  1  0  0  0  0
 36 78  1  0  0  0  0
 36 79  1  0  0  0  0
 36 80  1  0  0  0  0
M  END
> <PUBCHEM_COMPOUND_CID>
11799694

> <PUBCHEM_CONFORMER_RMSD>
1.2

> <PUBCHEM_CONFORMER_DIVERSEORDER>
1
3
6
5
8
2
4
7

> <PUBCHEM_MMFF94_PARTIAL_CHARGES>
18
1 -0.43
11 0.06
15 0.34
2 -0.57
20 0.45
27 0.28
3 -0.43
30 0.06
31 0.66
32 0.66
33 0.06
34 0.66
35 0.06
36 0.28
4 -0.57
5 -0.57
6 -0.43
7 -0.57

> <PUBCHEM_EFFECTIVE_ROTOR_COUNT>
11

> <PUBCHEM_PHARMACOPHORE_FEATURES>
9
1 2 acceptor
1 29 hydrophobe
1 4 acceptor
1 5 acceptor
1 7 acceptor
5 10 11 14 17 19 rings
6 12 13 21 22 26 27 rings
6 8 9 10 11 15 20 rings
6 8 9 12 13 16 18 rings

> <PUBCHEM_HEAVY_ATOM_COUNT>
36

> <PUBCHEM_ATOM_DEF_STEREO_COUNT>
10

> <PUBCHEM_ATOM_UDEF_STEREO_COUNT>
0

> <PUBCHEM_BOND_DEF_STEREO_COUNT>
0

> <PUBCHEM_BOND_UDEF_STEREO_COUNT>
0

> <PUBCHEM_ISOTOPIC_ATOM_COUNT>
0

> <PUBCHEM_COMPONENT_COUNT>
1

> <PUBCHEM_CACTVS_TAUTO_COUNT>
2

> <PUBCHEM_CONFORMER_ID>
00B40C8E00000001

> <PUBCHEM_MMFF94_ENERGY>
111.8771

> <PUBCHEM_FEATURE_SELFOVERLAP>
45.801

> <PUBCHEM_SHAPE_FINGERPRINT>
10006869 2 18130506439913985836
10674148 151 14851601076982048366
10930396 42 18129360684072381522
11115154 58 15864072048699285796
11456790 92 18336275583186986953
11961588 58 10159699105856425070
12166972 35 17385725803310443502
12422481 6 17989210322188835882
12608794 3 17488723679738314228
12633046 712 17823982453470509227
12788726 201 18337405876492100636
13004483 165 18341332266515924472
13008946 113 18121780792233775617
13150687 139 9583243890219715512
13533116 47 17095527339635715206
13540713 4 17629209208754344404
13692114 37 17909276776043432217
13782708 43 17897737693883898939
14068700 675 18113335293755277712
15131766 46 17829898980952485597
15183329 4 18334586750353298819
16728300 4 18043796603437085466
18393751 57 17346586496486728278
19301679 30 18263642871253126794
20105231 36 13262399951907951881
20511986 3 16343705413684114063
20642791 105 18262796250893054268
21033648 29 17131565959223903363
21150785 3 10447928373706504011
21344244 181 13623529047928636680
21792934 111 17988928825573868907
21814621 53 16950853612923031441
21859007 373 18410288095850888677
22149856 69 16915689002195558355
23559900 14 17629505204509119415
24771293 8 17346606283073565465
3004659 81 18338532918369263836
3178227 256 18268728237370063587
3633792 109 16950288416617136044
4093350 32 16081375197575817134
4112364 45 13470398934653695038
4340502 62 16271931514767333174
474113 269 18335413526403787171
5104073 3 18057606670807182386
57527293 21 17988065812415286748
6004065 56 17131832118874471059
6086070 43 18264753502846183239
9896288 288 18123184602989649634

> <PUBCHEM_SHAPE_MULTIPOLES>
699.78
18.1
3.5
2.15
14.3
4.23
0.31
-12.48
-9.23
-0.97
-0.46
-2.36
-0.76
-1.64

> <PUBCHEM_SHAPE_SELFOVERLAP>
1464.901

> <PUBCHEM_SHAPE_VOLUME>
391.7

> <PUBCHEM_COORDINATE_TYPE>
2
5
10

$$$$
