137517264
  -OEChem-04162505273D

 36 38  0     0  0  0  0  0  0999 V2000
   -0.1292    0.4453    0.2375 O   0  0  0  0  0  0  0  0  0  0  0  0
    0.4377   -3.5731   -0.2884 O   0  0  0  0  0  0  0  0  0  0  0  0
    2.3069    2.6829    1.5305 O   0  0  0  0  0  0  0  0  0  0  0  0
   -2.7144    3.7257   -0.4329 O   0  0  0  0  0  0  0  0  0  0  0  0
   -2.2681    1.9197   -1.7340 O   0  0  0  0  0  0  0  0  0  0  0  0
    1.1283   -0.0681    0.0353 C   0  0  0  0  0  0  0  0  0  0  0  0
    1.3929   -1.4246   -0.1506 C   0  0  0  0  0  0  0  0  0  0  0  0
   -1.1914   -0.4248    0.2589 C   0  0  0  0  0  0  0  0  0  0  0  0
    2.1806    0.8496    0.0206 C   0  0  0  0  0  0  0  0  0  0  0  0
   -1.0699   -1.8034    0.0867 C   0  0  0  0  0  0  0  0  0  0  0  0
    0.2686   -2.3729   -0.1313 C   0  0  0  0  0  0  0  0  0  0  0  0
   -2.4527    0.1370    0.4673 C   0  0  0  0  0  0  0  0  0  0  0  0
    3.4891    0.4079   -0.1790 C   0  0  0  0  0  0  0  0  0  0  0  0
    2.7015   -1.8718   -0.3509 C   0  0  0  0  0  0  0  0  0  0  0  0
    3.7487   -0.9502   -0.3644 C   0  0  0  0  0  0  0  0  0  0  0  0
   -2.1994   -2.6254    0.1211 C   0  0  0  0  0  0  0  0  0  0  0  0
    1.9093    2.3077    0.2192 C   0  0  0  0  0  0  0  0  0  0  0  0
   -2.6201    1.6098    0.6554 C   0  0  0  0  0  0  0  0  0  0  0  0
   -3.5835   -0.6798    0.5025 C   0  0  0  0  0  0  0  0  0  0  0  0
   -3.4566   -2.0583    0.3297 C   0  0  0  0  0  0  0  0  0  0  0  0
    4.6322    1.3699   -0.1989 C   0  0  0  0  0  0  0  0  0  0  0  0
   -2.5105    2.3969   -0.6341 C   0  0  0  0  0  0  0  0  0  0  0  0
    2.9225   -2.9253   -0.4971 H   0  0  0  0  0  0  0  0  0  0  0  0
    4.7628   -1.3086   -0.5213 H   0  0  0  0  0  0  0  0  0  0  0  0
   -2.1202   -3.7006   -0.0115 H   0  0  0  0  0  0  0  0  0  0  0  0
    2.4553    2.9149   -0.5106 H   0  0  0  0  0  0  0  0  0  0  0  0
    0.8534    2.5674    0.0956 H   0  0  0  0  0  0  0  0  0  0  0  0
   -3.6021    1.8263    1.0939 H   0  0  0  0  0  0  0  0  0  0  0  0
   -1.8672    1.9840    1.3594 H   0  0  0  0  0  0  0  0  0  0  0  0
   -4.5723   -0.2574    0.6613 H   0  0  0  0  0  0  0  0  0  0  0  0
   -4.3389   -2.6913    0.3571 H   0  0  0  0  0  0  0  0  0  0  0  0
    4.5323    2.0751   -1.0301 H   0  0  0  0  0  0  0  0  0  0  0  0
    4.7024    1.9186    0.7451 H   0  0  0  0  0  0  0  0  0  0  0  0
    5.5893    0.8533   -0.3343 H   0  0  0  0  0  0  0  0  0  0  0  0
    2.1375    3.6363    1.6187 H   0  0  0  0  0  0  0  0  0  0  0  0
   -2.6425    4.2366   -1.2672 H   0  0  0  0  0  0  0  0  0  0  0  0
  1  6  1  0  0  0  0
  1  8  1  0  0  0  0
  2 11  2  0  0  0  0
  3 17  1  0  0  0  0
  3 35  1  0  0  0  0
  4 22  1  0  0  0  0
  4 36  1  0  0  0  0
  5 22  2  0  0  0  0
  6  7  2  0  0  0  0
  6  9  1  0  0  0  0
  7 11  1  0  0  0  0
  7 14  1  0  0  0  0
  8 10  1  0  0  0  0
  8 12  2  0  0  0  0
  9 13  2  0  0  0  0
  9 17  1  0  0  0  0
 10 11  1  0  0  0  0
 10 16  2  0  0  0  0
 12 18  1  0  0  0  0
 12 19  1  0  0  0  0
 13 15  1  0  0  0  0
 13 21  1  0  0  0  0
 14 15  2  0  0  0  0
 14 23  1  0  0  0  0
 15 24  1  0  0  0  0
 16 20  1  0  0  0  0
 16 25  1  0  0  0  0
 17 26  1  0  0  0  0
 17 27  1  0  0  0  0
 18 22  1  0  0  0  0
 18 28  1  0  0  0  0
 18 29  1  0  0  0  0
 19 20  2  0  0  0  0
 19 30  1  0  0  0  0
 20 31  1  0  0  0  0
 21 32  1  0  0  0  0
 21 33  1  0  0  0  0
 21 34  1  0  0  0  0
M  END
> <PUBCHEM_COMPOUND_CID>
137517264

> <PUBCHEM_CONFORMER_RMSD>
0.6

> <PUBCHEM_CONFORMER_DIVERSEORDER>
1
6
9
8
10
7
11
3
4
2
5

> <PUBCHEM_MMFF94_PARTIAL_CHARGES>
29
1 -0.17
10 0.09
11 0.4
12 -0.14
13 -0.14
14 -0.15
15 -0.15
16 -0.15
17 0.42
18 0.2
19 -0.15
2 -0.57
20 -0.15
21 0.14
22 0.66
23 0.15
24 0.15
25 0.15
3 -0.68
30 0.15
31 0.15
35 0.4
36 0.5
4 -0.65
5 -0.57
6 0.08
7 0.09
8 0.08
9 -0.14

> <PUBCHEM_EFFECTIVE_ROTOR_COUNT>
3

> <PUBCHEM_PHARMACOPHORE_FEATURES>
10
1 1 acceptor
1 2 acceptor
1 3 acceptor
1 3 donor
1 4 acceptor
1 5 acceptor
3 4 5 22 anion
6 1 6 7 8 10 11 rings
6 6 7 9 13 14 15 rings
6 8 10 12 16 19 20 rings

> <PUBCHEM_HEAVY_ATOM_COUNT>
22

> <PUBCHEM_ATOM_DEF_STEREO_COUNT>
0

> <PUBCHEM_ATOM_UDEF_STEREO_COUNT>
0

> <PUBCHEM_BOND_DEF_STEREO_COUNT>
0

> <PUBCHEM_BOND_UDEF_STEREO_COUNT>
0

> <PUBCHEM_ISOTOPIC_ATOM_COUNT>
0

> <PUBCHEM_COMPONENT_COUNT>
1

> <PUBCHEM_CACTVS_TAUTO_COUNT>
-1

> <PUBCHEM_CONFORMER_ID>
083258D000000001

> <PUBCHEM_MMFF94_ENERGY>
61.8753

> <PUBCHEM_FEATURE_SELFOVERLAP>
50.863

> <PUBCHEM_SHAPE_FINGERPRINT>
10165383 225 18193293904914486237
10411042 1 17187287314856478470
10608611 8 18411420609210450698
10670039 82 18117295837929089980
10967382 1 17979078180224723586
1100329 8 17831297199102711810
11595378 159 17970047032675536776
12173636 292 18409730655480269119
12403259 226 18341051920851563386
12403260 363 18336815412276548214
12730499 353 17685216076342861445
12769317 202 17180512695183377629
13140716 1 18267020557840404394
14223421 5 18410574023827301347
14251751 93 18335417950382937194
15196674 1 18340494442834553394
16945 1 18411415128737683682
18186145 218 18200041642249365190
18219364 16 18265907851777637529
18981168 100 18269534144009942544
19591789 44 18411142433101173070
20510252 161 18342182197261457115
20739085 24 17976853039927452203
21279426 13 18269564845491248534
21524375 3 18411423946505956986
22907989 373 18261669367675662445
2334 1 18412266125299905986
23402539 116 18198339769864085487
23557571 272 18114742741473803335
23558518 356 18187371999779820267
23559900 14 18198904901750252144
23566358 2 18271818903930100174
238 59 18125130819732164685
25 1 18048594824349691676
2748010 2 18340774753996270750
335352 9 17977952280608310966
350125 39 18411426141059860184
3524813 1 18270682102932186000
5104073 3 18411989078402940418
81228 2 18114748234705495313
9709674 26 18198635508627821486

> <PUBCHEM_SHAPE_MULTIPOLES>
423.4
6.97
4.01
0.88
3.18
0.93
-0.06
1.59
0.05
-1.92
-0.4
-0.18
0.53
1.17

> <PUBCHEM_SHAPE_SELFOVERLAP>
939.37

> <PUBCHEM_SHAPE_VOLUME>
226.4

> <PUBCHEM_COORDINATE_TYPE>
2
5
10

$$$$
