137517260
  -OEChem-04162505243D

 66 69  0     1  0  0  0  0  0999 V2000
   -2.9502   -0.4875   -1.3182 P   0  0  2  0  0  0  0  0  0  0  0  0
    2.8161   -3.6267   -1.6704 F   0  0  0  0  0  0  0  0  0  0  0  0
    1.1993   -1.2223   -1.1483 O   0  0  0  0  0  0  0  0  0  0  0  0
    0.8155   -4.6586   -0.1848 O   0  0  0  0  0  0  0  0  0  0  0  0
   -1.7774   -1.5948   -1.5470 O   0  0  0  0  0  0  0  0  0  0  0  0
    0.9694    2.2468   -1.4017 O   0  0  0  0  0  0  0  0  0  0  0  0
   -3.7778   -1.1538   -0.0929 O   0  0  0  0  0  0  0  0  0  0  0  0
    5.0991   -0.4555   -0.1345 O   0  0  0  0  0  0  0  0  0  0  0  0
   -3.7896   -0.3484   -2.5633 O   0  0  0  0  0  0  0  0  0  0  0  0
   -0.4007    2.6563    0.4053 O   0  0  0  0  0  0  0  0  0  0  0  0
    3.5575    1.5874    3.6987 O   0  0  0  0  0  0  0  0  0  0  0  0
    2.8417   -0.6993    0.4159 N   0  0  0  0  0  0  0  0  0  0  0  0
   -2.2211    0.8892   -0.7449 N   0  0  0  0  0  0  0  0  0  0  0  0
    4.3294    0.5612    1.7740 N   0  0  0  0  0  0  0  0  0  0  0  0
    2.5993   -3.0134   -0.4656 C   0  0  2  0  0  0  0  0  0  0  0  0
    1.1761   -3.3017   -0.0326 C   0  0  1  0  0  0  0  0  0  0  0  0
    2.5485   -1.5122   -0.7320 C   0  0  1  0  0  0  0  0  0  0  0  0
    0.3975   -2.4054   -0.9813 C   0  0  1  0  0  0  0  0  0  0  0  0
    3.6746   -3.5025    0.4853 C   0  0  0  0  0  0  0  0  0  0  0  0
   -0.9754   -2.0231   -0.4584 C   0  0  0  0  0  0  0  0  0  0  0  0
    2.0790    2.8192   -0.6904 C   0  0  0  0  0  0  0  0  0  0  0  0
    2.0337    4.3505   -0.4751 C   0  0  0  0  0  0  0  0  0  0  0  0
    3.3631    3.0548   -1.5195 C   0  0  0  0  0  0  0  0  0  0  0  0
    3.5516    4.3675   -0.7362 C   0  0  0  0  0  0  0  0  0  0  0  0
    4.1559   -0.2197    0.6236 C   0  0  0  0  0  0  0  0  0  0  0  0
    1.8331   -0.3863    1.3193 C   0  0  0  0  0  0  0  0  0  0  0  0
   -1.2817    1.5915   -1.6061 C   0  0  2  0  0  0  0  0  0  0  0  0
   -0.2220    2.2297   -0.7280 C   0  0  0  0  0  0  0  0  0  0  0  0
    2.0136    0.3596    2.4112 C   0  0  0  0  0  0  0  0  0  0  0  0
    3.3574    0.8990    2.7027 C   0  0  0  0  0  0  0  0  0  0  0  0
   -2.0181    2.6495   -2.4164 C   0  0  0  0  0  0  0  0  0  0  0  0
   -4.7957   -0.5535    0.5979 C   0  0  0  0  0  0  0  0  0  0  0  0
   -5.6130    0.3817   -0.0369 C   0  0  0  0  0  0  0  0  0  0  0  0
   -5.0156   -0.8771    1.9367 C   0  0  0  0  0  0  0  0  0  0  0  0
   -6.6503    0.9934    0.6671 C   0  0  0  0  0  0  0  0  0  0  0  0
   -6.0528   -0.2655    2.6408 C   0  0  0  0  0  0  0  0  0  0  0  0
   -6.8701    0.6698    2.0060 C   0  0  0  0  0  0  0  0  0  0  0  0
    1.0209   -3.0268    1.0160 H   0  0  0  0  0  0  0  0  0  0  0  0
    3.2143   -1.2427   -1.5593 H   0  0  0  0  0  0  0  0  0  0  0  0
    0.2993   -2.8753   -1.9687 H   0  0  0  0  0  0  0  0  0  0  0  0
    4.6690   -3.2338    0.1150 H   0  0  0  0  0  0  0  0  0  0  0  0
    3.6508   -4.5958    0.5511 H   0  0  0  0  0  0  0  0  0  0  0  0
    3.5532   -3.1031    1.4965 H   0  0  0  0  0  0  0  0  0  0  0  0
   -0.9377   -1.2361    0.2953 H   0  0  0  0  0  0  0  0  0  0  0  0
   -1.4780   -2.8914   -0.0211 H   0  0  0  0  0  0  0  0  0  0  0  0
    2.2862    2.2751    0.2359 H   0  0  0  0  0  0  0  0  0  0  0  0
    1.7305    4.6819    0.5216 H   0  0  0  0  0  0  0  0  0  0  0  0
    1.4468    4.8924   -1.2257 H   0  0  0  0  0  0  0  0  0  0  0  0
    3.1831    3.1964   -2.5913 H   0  0  0  0  0  0  0  0  0  0  0  0
    4.1557    2.3140   -1.3870 H   0  0  0  0  0  0  0  0  0  0  0  0
    4.1555    4.2548    0.1715 H   0  0  0  0  0  0  0  0  0  0  0  0
    3.9264    5.2167   -1.3127 H   0  0  0  0  0  0  0  0  0  0  0  0
   -0.1229   -4.7454    0.0531 H   0  0  0  0  0  0  0  0  0  0  0  0
    0.8445   -0.7682    1.1430 H   0  0  0  0  0  0  0  0  0  0  0  0
   -0.7887    0.8737   -2.2716 H   0  0  0  0  0  0  0  0  0  0  0  0
   -2.8146    1.5614   -0.2597 H   0  0  0  0  0  0  0  0  0  0  0  0
    5.2661    0.9168    1.9435 H   0  0  0  0  0  0  0  0  0  0  0  0
    1.2037    0.5821    3.0950 H   0  0  0  0  0  0  0  0  0  0  0  0
   -2.5024    3.3904   -1.7696 H   0  0  0  0  0  0  0  0  0  0  0  0
   -1.3177    3.1942   -3.0594 H   0  0  0  0  0  0  0  0  0  0  0  0
   -2.7836    2.2034   -3.0592 H   0  0  0  0  0  0  0  0  0  0  0  0
   -5.4768    0.6542   -1.0768 H   0  0  0  0  0  0  0  0  0  0  0  0
   -4.3816   -1.6046    2.4362 H   0  0  0  0  0  0  0  0  0  0  0  0
   -7.2877    1.7208    0.1729 H   0  0  0  0  0  0  0  0  0  0  0  0
   -6.2240   -0.5173    3.6833 H   0  0  0  0  0  0  0  0  0  0  0  0
   -7.6779    1.1458    2.5541 H   0  0  0  0  0  0  0  0  0  0  0  0
  1  5  1  0  0  0  0
  1  7  1  0  0  0  0
  1  9  2  0  0  0  0
  1 13  1  0  0  0  0
  2 15  1  0  0  0  0
  3 17  1  0  0  0  0
  3 18  1  0  0  0  0
  4 16  1  0  0  0  0
  4 53  1  0  0  0  0
  5 20  1  0  0  0  0
  6 21  1  0  0  0  0
  6 28  1  0  0  0  0
  7 32  1  0  0  0  0
  8 25  2  0  0  0  0
 10 28  2  0  0  0  0
 11 30  2  0  0  0  0
 12 17  1  0  0  0  0
 12 25  1  0  0  0  0
 12 26  1  0  0  0  0
 13 27  1  0  0  0  0
 13 56  1  0  0  0  0
 14 25  1  0  0  0  0
 14 30  1  0  0  0  0
 14 57  1  0  0  0  0
 15 16  1  0  0  0  0
 15 17  1  0  0  0  0
 15 19  1  0  0  0  0
 16 18  1  0  0  0  0
 16 38  1  0  0  0  0
 17 39  1  0  0  0  0
 18 20  1  0  0  0  0
 18 40  1  0  0  0  0
 19 41  1  0  0  0  0
 19 42  1  0  0  0  0
 19 43  1  0  0  0  0
 20 44  1  0  0  0  0
 20 45  1  0  0  0  0
 21 22  1  0  0  0  0
 21 23  1  0  0  0  0
 21 46  1  0  0  0  0
 22 24  1  0  0  0  0
 22 47  1  0  0  0  0
 22 48  1  0  0  0  0
 23 24  1  0  0  0  0
 23 49  1  0  0  0  0
 23 50  1  0  0  0  0
 24 51  1  0  0  0  0
 24 52  1  0  0  0  0
 26 29  2  0  0  0  0
 26 54  1  0  0  0  0
 27 28  1  0  0  0  0
 27 31  1  0  0  0  0
 27 55  1  0  0  0  0
 29 30  1  0  0  0  0
 29 58  1  0  0  0  0
 31 59  1  0  0  0  0
 31 60  1  0  0  0  0
 31 61  1  0  0  0  0
 32 33  2  0  0  0  0
 32 34  1  0  0  0  0
 33 35  1  0  0  0  0
 33 62  1  0  0  0  0
 34 36  2  0  0  0  0
 34 63  1  0  0  0  0
 35 37  2  0  0  0  0
 35 64  1  0  0  0  0
 36 37  1  0  0  0  0
 36 65  1  0  0  0  0
 37 66  1  0  0  0  0
M  END
> <PUBCHEM_COMPOUND_CID>
137517260

> <PUBCHEM_CONFORMER_RMSD>
1.2

> <PUBCHEM_CONFORMER_DIVERSEORDER>
1
125
57
137
52
53
80
36
81
51
69
130
17
47
30
28
120
82
79
55
83
45
29
11
70
25
74
5
116
8
110
88
32
134
50
7
76
133
56
128
43
85
96
73
105
9
64
59
115
49
14
89
65
44
108
24
111
66
78
22
112
37
18
38
10
94
41
117
42
16
87
40
13
114
20
135
132
84
138
19
46
12
39
102
54
90
27
118
119
91
15
129
58
21
3
109
98
107
71
63
26
35
48
68
2
121
113
127
23
103
101
86
139
4
77
92
95
67
124
106
31
75
131
62
126
72
136
100
99
6
97
93
61
60
104
122
34
33
123

> <PUBCHEM_MMFF94_PARTIAL_CHARGES>
42
1 1.51
10 -0.57
11 -0.57
12 -0.47
13 -0.9
14 -0.49
15 0.34
16 0.28
17 0.58
18 0.28
2 -0.34
20 0.28
21 0.26
25 0.69
26 -0.04
27 0.33
28 0.66
29 -0.14
3 -0.56
30 0.62
32 0.08
33 -0.15
34 -0.15
35 -0.15
36 -0.15
37 -0.15
4 -0.68
5 -0.55
53 0.4
54 0.15
56 0.36
57 0.37
58 0.15
6 -0.41
62 0.15
63 0.15
64 0.15
65 0.15
66 0.15
7 -0.35
8 -0.57
9 -0.7

> <PUBCHEM_EFFECTIVE_ROTOR_COUNT>
12.8

> <PUBCHEM_PHARMACOPHORE_FEATURES>
12
1 10 acceptor
1 11 acceptor
1 14 donor
1 3 acceptor
1 4 acceptor
1 4 donor
1 8 acceptor
1 9 acceptor
4 21 22 23 24 rings
5 3 15 16 17 18 rings
6 12 14 25 26 29 30 rings
6 32 33 34 35 36 37 rings

> <PUBCHEM_HEAVY_ATOM_COUNT>
37

> <PUBCHEM_ATOM_DEF_STEREO_COUNT>
6

> <PUBCHEM_ATOM_UDEF_STEREO_COUNT>
0

> <PUBCHEM_BOND_DEF_STEREO_COUNT>
0

> <PUBCHEM_BOND_UDEF_STEREO_COUNT>
0

> <PUBCHEM_ISOTOPIC_ATOM_COUNT>
0

> <PUBCHEM_COMPONENT_COUNT>
1

> <PUBCHEM_CACTVS_TAUTO_COUNT>
-1

> <PUBCHEM_CONFORMER_ID>
083258CC00000001

> <PUBCHEM_MMFF94_ENERGY>
80.7969

> <PUBCHEM_FEATURE_SELFOVERLAP>
60.901

> <PUBCHEM_SHAPE_FINGERPRINT>
11135609 12 18188490155786606116
12156800 1 15361954972797776622
12422481 6 18335412487427571473
12633257 1 17968372450891932299
13140716 1 18263926720623617806
13165054 342 17989207091794091113
14004853 49 18196924685398561768
14114211 80 18128819827504537838
14790565 3 18122352542621789005
15064986 96 18187654635093942465
15081414 286 18411700946047429494
15297060 5 18199751517657153912
15324884 4 17977354202402153636
15406563 185 17202503223959921713
20764821 26 18192980728704452014
21421861 104 18410019861604535773
21796203 349 18261674865376700200
25222932 49 17024036049983892859
3411729 13 17969797456331573981
392239 28 17844501423424411136
394071 54 18343026549757510359
6287921 2 18342170076963896374

> <PUBCHEM_SHAPE_MULTIPOLES>
690.25
12.6
5.3
2.69
22.44
0.53
-1.86
1.28
-8.07
-7.78
2.63
0.31
0.76
0.7

> <PUBCHEM_SHAPE_SELFOVERLAP>
1444.702

> <PUBCHEM_SHAPE_VOLUME>
393.7

> <PUBCHEM_COORDINATE_TYPE>
2
5
10

$$$$
