137517262
  -OEChem-04162505253D

 45 44  0     0  0  0  0  0  0999 V2000
   -2.8356   -1.6865    0.2283 O   0  0  0  0  0  0  0  0  0  0  0  0
    3.3597   -1.1873   -0.5106 O   0  0  0  0  0  0  0  0  0  0  0  0
   -1.6768    0.5760    1.6058 O   0  0  0  0  0  0  0  0  0  0  0  0
   -0.8536    5.2859    0.0190 O   0  0  0  0  0  0  0  0  0  0  0  0
    0.7718    4.0866   -1.0178 O   0  0  0  0  0  0  0  0  0  0  0  0
   -0.1487   -0.8128    0.5513 N   0  0  0  0  0  0  0  0  0  0  0  0
   -6.1096   -1.6347   -1.4484 N   0  0  0  0  0  0  0  0  0  0  0  0
    7.0294   -1.3051   -0.2803 N   0  0  0  0  0  0  0  0  0  0  0  0
   -0.6725   -2.0106    1.1964 C   0  0  0  0  0  0  0  0  0  0  0  0
    0.9778   -1.0361   -0.3521 C   0  0  0  0  0  0  0  0  0  0  0  0
   -0.7244    0.4305    0.8352 C   0  0  0  0  0  0  0  0  0  0  0  0
   -1.7805   -2.6300    0.3597 C   0  0  0  0  0  0  0  0  0  0  0  0
    2.2955   -0.9474    0.4010 C   0  0  0  0  0  0  0  0  0  0  0  0
   -0.1022    1.6346    0.1354 C   0  0  0  0  0  0  0  0  0  0  0  0
   -0.7775    2.9603    0.4890 C   0  0  0  0  0  0  0  0  0  0  0  0
   -3.9071   -2.2069   -0.5467 C   0  0  0  0  0  0  0  0  0  0  0  0
    4.6242   -1.1182    0.1343 C   0  0  0  0  0  0  0  0  0  0  0  0
   -4.9959   -1.1506   -0.6465 C   0  0  0  0  0  0  0  0  0  0  0  0
    5.7121   -1.3832   -0.8941 C   0  0  0  0  0  0  0  0  0  0  0  0
   -0.1862    4.1354   -0.2591 C   0  0  0  0  0  0  0  0  0  0  0  0
    0.1382   -2.7276    1.3632 H   0  0  0  0  0  0  0  0  0  0  0  0
   -1.0744   -1.7305    2.1770 H   0  0  0  0  0  0  0  0  0  0  0  0
    0.8742   -2.0144   -0.8366 H   0  0  0  0  0  0  0  0  0  0  0  0
    0.9706   -0.3047   -1.1653 H   0  0  0  0  0  0  0  0  0  0  0  0
   -2.1534   -3.5320    0.8582 H   0  0  0  0  0  0  0  0  0  0  0  0
   -1.4068   -2.9042   -0.6336 H   0  0  0  0  0  0  0  0  0  0  0  0
    2.3268   -1.6970    1.2006 H   0  0  0  0  0  0  0  0  0  0  0  0
    2.4193    0.0396    0.8592 H   0  0  0  0  0  0  0  0  0  0  0  0
    0.9594    1.6923    0.3942 H   0  0  0  0  0  0  0  0  0  0  0  0
   -0.1835    1.4837   -0.9471 H   0  0  0  0  0  0  0  0  0  0  0  0
   -0.6762    3.1530    1.5630 H   0  0  0  0  0  0  0  0  0  0  0  0
   -1.8447    2.9058    0.2444 H   0  0  0  0  0  0  0  0  0  0  0  0
   -3.5403   -2.4683   -1.5469 H   0  0  0  0  0  0  0  0  0  0  0  0
   -4.2984   -3.1124   -0.0671 H   0  0  0  0  0  0  0  0  0  0  0  0
    4.7548   -0.1226    0.5758 H   0  0  0  0  0  0  0  0  0  0  0  0
    4.6675   -1.8669    0.9348 H   0  0  0  0  0  0  0  0  0  0  0  0
   -5.3446   -0.8769    0.3559 H   0  0  0  0  0  0  0  0  0  0  0  0
   -4.5877   -0.2368   -1.0928 H   0  0  0  0  0  0  0  0  0  0  0  0
    5.5660   -2.3703   -1.3475 H   0  0  0  0  0  0  0  0  0  0  0  0
    5.6396   -0.6538   -1.7086 H   0  0  0  0  0  0  0  0  0  0  0  0
   -6.5108   -2.4652   -1.0147 H   0  0  0  0  0  0  0  0  0  0  0  0
   -6.8488   -0.9333   -1.4601 H   0  0  0  0  0  0  0  0  0  0  0  0
    7.1088   -2.0065    0.4548 H   0  0  0  0  0  0  0  0  0  0  0  0
    7.7401   -1.5359   -0.9733 H   0  0  0  0  0  0  0  0  0  0  0  0
   -0.4742    6.0533   -0.4602 H   0  0  0  0  0  0  0  0  0  0  0  0
  1 12  1  0  0  0  0
  1 16  1  0  0  0  0
  2 13  1  0  0  0  0
  2 17  1  0  0  0  0
  3 11  2  0  0  0  0
  4 20  1  0  0  0  0
  4 45  1  0  0  0  0
  5 20  2  0  0  0  0
  6  9  1  0  0  0  0
  6 10  1  0  0  0  0
  6 11  1  0  0  0  0
  7 18  1  0  0  0  0
  7 41  1  0  0  0  0
  7 42  1  0  0  0  0
  8 19  1  0  0  0  0
  8 43  1  0  0  0  0
  8 44  1  0  0  0  0
  9 12  1  0  0  0  0
  9 21  1  0  0  0  0
  9 22  1  0  0  0  0
 10 13  1  0  0  0  0
 10 23  1  0  0  0  0
 10 24  1  0  0  0  0
 11 14  1  0  0  0  0
 12 25  1  0  0  0  0
 12 26  1  0  0  0  0
 13 27  1  0  0  0  0
 13 28  1  0  0  0  0
 14 15  1  0  0  0  0
 14 29  1  0  0  0  0
 14 30  1  0  0  0  0
 15 20  1  0  0  0  0
 15 31  1  0  0  0  0
 15 32  1  0  0  0  0
 16 18  1  0  0  0  0
 16 33  1  0  0  0  0
 16 34  1  0  0  0  0
 17 19  1  0  0  0  0
 17 35  1  0  0  0  0
 17 36  1  0  0  0  0
 18 37  1  0  0  0  0
 18 38  1  0  0  0  0
 19 39  1  0  0  0  0
 19 40  1  0  0  0  0
M  END
> <PUBCHEM_COMPOUND_CID>
137517262

> <PUBCHEM_CONFORMER_RMSD>
1

> <PUBCHEM_CONFORMER_DIVERSEORDER>
1
21
25
80
4
43
8
64
69
52
5
39
29
57
31
63
6
50
73
22
40
56
20
7
35
12
30
47
71
77
66
54
65
23
3
19
42
16
51
13
55
46
45
48
44
49
15
79
36
59
41
78
11
58
33
27
10
26
37
38
17
14
74
72
81
60
53
62
68
75
76
67
70
2
24
32
82
28
34
9
61
18

> <PUBCHEM_MMFF94_PARTIAL_CHARGES>
25
1 -0.56
10 0.3
11 0.57
12 0.28
13 0.28
14 0.06
15 0.06
16 0.28
17 0.28
18 0.27
19 0.27
2 -0.56
20 0.66
3 -0.57
4 -0.65
41 0.36
42 0.36
43 0.36
44 0.36
45 0.5
5 -0.57
6 -0.66
7 -0.99
8 -0.99
9 0.3

> <PUBCHEM_EFFECTIVE_ROTOR_COUNT>
14

> <PUBCHEM_PHARMACOPHORE_FEATURES>
10
1 1 acceptor
1 2 acceptor
1 3 acceptor
1 4 acceptor
1 5 acceptor
1 7 cation
1 7 donor
1 8 cation
1 8 donor
3 4 5 20 anion

> <PUBCHEM_HEAVY_ATOM_COUNT>
20

> <PUBCHEM_ATOM_DEF_STEREO_COUNT>
0

> <PUBCHEM_ATOM_UDEF_STEREO_COUNT>
0

> <PUBCHEM_BOND_DEF_STEREO_COUNT>
0

> <PUBCHEM_BOND_UDEF_STEREO_COUNT>
0

> <PUBCHEM_ISOTOPIC_ATOM_COUNT>
0

> <PUBCHEM_COMPONENT_COUNT>
1

> <PUBCHEM_CACTVS_TAUTO_COUNT>
-1

> <PUBCHEM_CONFORMER_ID>
083258CE00000001

> <PUBCHEM_MMFF94_ENERGY>
20.917

> <PUBCHEM_FEATURE_SELFOVERLAP>
50.808

> <PUBCHEM_SHAPE_FINGERPRINT>
11833330 49 18409444778288615514
12293681 160 18040429988467628947
12788726 201 18261386698671948834
13590594 115 18410299108078353673
14508225 48 18412262848028628732
14556957 393 18262535740178730292
167882 2 17977384163566294829
16992727 255 18042680612019392677
17539 30 18340484452603193580
20600515 1 18199491980582321170
23402539 116 18343304747157644699
23419403 2 17916278671956655625
23559900 14 18267861881292530210
23929065 36 18267001892112729984
266924 87 18266737969955974166
5969126 39 18342170047358191422
68521 5 18411136905230330314
7164475 11 18192986024362821242
81228 2 18268729254232853418

> <PUBCHEM_SHAPE_MULTIPOLES>
367.3
11.1
5.62
1.09
11.1
12.15
0.07
-13.61
-5.56
-2.49
-0.75
-0.63
-0.18
-0.58

> <PUBCHEM_SHAPE_SELFOVERLAP>
691.934

> <PUBCHEM_SHAPE_VOLUME>
226.6

> <PUBCHEM_COORDINATE_TYPE>
2
5
10

$$$$
